54
CommentLine
 C  -0.92179  -2.99018  -3.30053
 C  -0.25892  -2.27355  -2.30306
 C  0.98206  -2.85389  -1.89388
 C  1.30072  -4.03473  -2.57167
 S  0.04788  -4.29496  -3.62671
 H  -0.54869  -1.21578  -2.02777
 H  -2.02098  -3.10104  -3.49620
 C  1.98751  -2.15451  -0.85779
 C  1.93325  -2.41798  0.82062
 C  2.94732  -1.32180  1.60331
 H  4.00410  -1.79262  1.57370
 H  2.93865  -0.35405  0.97041
 H  2.29526  -3.48199  1.05220
 H  0.88053  -2.24919  1.23628
 H  1.80674  -1.00597  -0.90965
 H  3.08045  -2.37262  -1.16965
 C  2.57214  -0.93189  3.13939
 C  1.21205  0.05223  3.36307
 C  1.37678  1.65638  2.90674
 H  1.67299  1.67282  1.79260
 H  2.16950  2.16618  3.57019
 H  0.36237  2.19122  3.04023
 H  0.92988  0.03294  4.47920
 H  0.35887  -0.38076  2.72674
 H  2.39690  -1.90295  3.74026
 H  3.47129  -0.36713  3.60605
 C  -4.96853  -1.86321  -0.77818
 C  -3.95202  -0.98592  -0.39742
 C  -2.69516  -1.62091  -0.14970
 C  -2.71934  -3.00659  -0.33579
 S  -4.27268  -3.36811  -0.79063
 H  -4.14382  0.13188  -0.29692
 C  -1.45169  -0.68989  0.27030
 C  -1.48406  0.77742  -0.59377
 C  -0.25270  1.86522  -0.23479
 H  -0.31163  2.09439  0.89153
 H  0.74054  1.32217  -0.44313
 H  -2.46581  1.34701  -0.38942
 H  -1.45442  0.56212  -1.72614
 H  -1.52595  -0.41772  1.40068
 H  -0.43938  -1.19851  0.08389
 C  -0.40947  3.25186  -1.07380
 C  0.65558  4.53368  -0.79301
 C  -0.13000  6.00447  -1.01072
 H  -0.98049  6.10358  -0.23108
 H  -0.57223  6.05695  -2.07890
 H  0.63401  6.84949  -0.86800
 H  1.08435  4.46690  0.26638
 H  1.51794  4.48557  -1.55702
 H  -0.30638  3.01279  -2.20117
 H  -1.47789  3.66649  -0.89996
 H  2.19632  -4.55939  -2.35666
 H  -5.94409  -1.50565  -0.98802
 H  -1.84787  -3.59026  -0.18262
