54
CommentLine
 C  1.88533  0.72219  -6.78899
 C  2.54821  1.43882  -5.79153
 C  3.78919  0.85848  -5.38235
 C  4.10784  -0.32236  -6.06013
 S  2.85500  -0.58259  -7.11517
 H  2.25843  2.49659  -5.51623
 H  0.78614  0.61133  -6.98466
 C  4.79463  1.55786  -4.34625
 C  4.74038  1.29439  -2.66784
 C  5.75444  2.39057  -1.88515
 H  6.81122  1.91975  -1.91477
 H  5.74577  3.35833  -2.51805
 H  5.10238  0.23038  -2.43627
 H  3.68766  1.46318  -2.25218
 H  4.61387  2.70640  -4.39811
 H  5.88758  1.33976  -4.65811
 C  5.37927  2.78048  -0.34907
 C  4.01917  3.76460  -0.12540
 C  4.18390  5.36875  -0.58172
 H  4.48011  5.38519  -1.69587
 H  4.97663  5.87855  0.08172
 H  3.16949  5.90360  -0.44824
 H  3.73701  3.74531  0.99073
 H  3.16599  3.33161  -0.76173
 H  5.20403  1.80943  0.25179
 H  6.27841  3.34524  0.11759
 C  -1.95987  -2.44919  -1.35990
 C  -2.82863  -2.50752  -0.26915
 C  -2.68092  -1.42526  0.65345
 C  -1.69052  -0.50773  0.28936
 S  -1.05861  -1.07580  -1.13486
 H  -3.42445  -3.42927  0.01462
 C  -3.94871  -1.12564  1.56869
 C  -4.96495  -2.37303  2.10429
 C  -4.67351  -3.51568  3.33070
 H  -5.45609  -4.34177  3.09278
 H  -3.61438  -3.91966  3.09139
 H  -5.16235  -3.00349  1.15720
 H  -5.95139  -1.85744  2.42058
 H  -3.60406  -0.41171  2.35666
 H  -4.69590  -0.56145  0.84689
 C  -4.73264  -3.32850  4.95346
 C  -6.10793  -2.66471  5.66563
 C  -5.81028  -2.11199  7.22898
 H  -5.44948  -1.01283  7.18898
 H  -4.99601  -2.76912  7.72082
 H  -6.78877  -2.18081  7.84135
 H  -6.90583  -3.49325  5.73191
 H  -6.49762  -1.80300  5.02185
 H  -3.80548  -2.80718  5.38326
 H  -4.69252  -4.41328  5.39820
 H  5.00344  -0.84702  -5.84513
 H  -1.97839  -3.19840  -2.10953
 H  -1.48622  0.33893  0.89353
