54
CommentLine
 C  -0.27278  -3.18968  -5.23733
 C  0.39010  -2.47305  -4.23987
 C  1.63108  -3.05339  -3.83069
 C  1.94973  -4.23423  -4.50847
 S  0.69689  -4.49446  -5.56351
 H  0.10032  -1.41528  -3.96458
 H  -1.37197  -3.30054  -5.43300
 C  2.63652  -2.35401  -2.79460
 C  2.58227  -2.61748  -1.11619
 C  3.59634  -1.52130  -0.33349
 H  4.65311  -1.99212  -0.36311
 H  3.58766  -0.55354  -0.96640
 H  2.94427  -3.68149  -0.88461
 H  1.52955  -2.44869  -0.70053
 H  2.45576  -1.20547  -2.84646
 H  3.72947  -2.57211  -3.10646
 C  3.22116  -1.13139  1.20258
 C  1.86107  -0.14727  1.42626
 C  2.02580  1.45688  0.96994
 H  2.32201  1.47332  -0.14421
 H  2.81852  1.96668  1.63338
 H  1.01138  1.99173  1.10342
 H  1.57890  -0.16656  2.54239
 H  1.00788  -0.58026  0.78993
 H  3.04592  -2.10244  1.80345
 H  4.12031  -0.56663  1.66925
 C  -3.31397  -2.92476  2.40777
 C  -3.10226  -1.80001  1.60902
 C  -2.62605  -0.65724  2.32424
 C  -2.46091  -0.88074  3.69468
 S  -2.90651  -2.45833  3.94580
 H  -3.39143  -1.76768  0.50657
 C  -2.29993  0.78890  1.71412
 C  -3.20919  1.25274  0.39501
 C  -3.29185  2.92335  0.30020
 H  -3.75038  3.28322  1.29470
 H  -3.99449  3.19112  -0.57443
 H  -4.27994  0.84106  0.52134
 H  -2.71682  0.82721  -0.53545
 H  -1.17582  0.82917  1.40171
 H  -2.46149  1.60399  2.53133
 C  -1.89104  3.71861  0.10229
 C  -0.99823  3.93967  1.51353
 C  0.42971  4.74235  1.17186
 H  0.95733  4.22094  0.28671
 H  1.11323  4.69428  2.09912
 H  0.16439  5.82859  0.88830
 H  -1.61312  4.56685  2.26242
 H  -0.73922  2.92751  1.99095
 H  -2.11743  4.77025  -0.33028
 H  -1.24163  3.15098  -0.65435
 H  2.84533  -4.75889  -4.29347
 H  -3.66672  -3.83128  1.98660
 H  -2.11284  -0.10903  4.33258
