54
CommentLine
 C  -5.03226  2.83659  -2.40292
 C  -4.36939  3.55321  -1.40545
 C  -3.12841  2.97287  -0.99628
 C  -2.80975  1.79203  -1.67406
 S  -4.06259  1.53181  -2.72910
 H  -4.65916  4.61098  -1.13016
 H  -6.13145  2.72573  -2.59859
 C  -2.12296  3.67225  0.03982
 C  -2.17722  3.40879  1.71823
 C  -1.16315  4.50496  2.50092
 H  -0.10637  4.03414  2.47131
 H  -1.17182  5.47272  1.86802
 H  -1.81521  2.34477  1.94980
 H  -3.22994  3.57758  2.13389
 H  -2.30373  4.82080  -0.01204
 H  -1.03002  3.45415  -0.27204
 C  -1.53833  4.89487  4.03700
 C  -2.89842  5.87899  4.26068
 C  -2.73369  7.48314  3.80435
 H  -2.43748  7.49958  2.69021
 H  -1.94097  7.99294  4.46779
 H  -3.74810  8.01799  3.93784
 H  -3.18059  5.85971  5.37680
 H  -3.75160  5.44601  3.62434
 H  -1.71357  3.92382  4.63787
 H  -0.63918  5.45963  4.50366
 C  -0.88270  -4.75982  0.58669
 C  0.41370  -4.92786  0.09781
 C  1.06382  -6.11348  0.56249
 C  0.27680  -6.88553  1.42264
 S  -1.16178  -6.07204  1.56100
 H  1.00291  -4.05268  -0.32787
 C  2.50639  -6.47815  -0.04049
 C  3.52405  -5.13182  -0.22951
 C  3.37047  -4.10244  -1.57373
 H  2.31196  -4.35365  -1.96909
 H  3.42707  -3.05671  -1.08942
 H  4.61088  -5.43226  -0.20112
 H  3.30747  -4.47944  0.70680
 H  2.39310  -6.97107  -1.08297
 H  3.01051  -7.21984  0.67690
 C  4.29356  -3.96893  -2.91570
 C  4.22895  -2.36696  -3.47635
 C  4.30649  -2.14070  -5.14213
 H  5.39160  -2.20362  -5.51850
 H  3.87175  -1.09107  -5.37951
 H  3.66993  -2.94459  -5.67977
 H  5.09762  -1.84417  -2.94682
 H  3.27874  -1.83908  -3.09021
 H  5.39150  -4.22092  -2.69649
 H  3.91888  -4.67496  -3.74162
 H  -1.91415  1.26737  -1.45906
 H  -1.46229  -3.91650  0.31014
 H  0.64813  -7.78914  1.83398
