54
CommentLine
 C  -4.24059  -5.89912  -1.21446
 C  -3.57772  -5.18250  -0.21699
 C  -2.33674  -5.76284  0.19219
 C  -2.01809  -6.94368  -0.48560
 S  -3.27093  -7.20390  -1.54064
 H  -3.86750  -4.12473  0.05830
 H  -5.33978  -6.00998  -1.41013
 C  -1.33129  -5.06346  1.22828
 C  -1.38555  -5.32692  2.90669
 C  -0.37148  -4.23074  3.68938
 H  0.68530  -4.70157  3.65977
 H  -0.38016  -3.26299  3.05648
 H  -1.02355  -6.39094  3.13827
 H  -2.43827  -5.15813  3.32235
 H  -1.51206  -3.91491  1.17642
 H  -0.23835  -5.28156  0.91642
 C  -0.74666  -3.84084  5.22546
 C  -2.10675  -2.85672  5.44914
 C  -1.94202  -1.25257  4.99281
 H  -1.64581  -1.23613  3.87867
 H  -1.14930  -0.74277  5.65626
 H  -2.95644  -0.71772  5.12630
 H  -2.38892  -2.87600  6.56527
 H  -2.95993  -3.28970  4.81281
 H  -0.92190  -4.81189  5.82633
 H  0.15249  -3.27608  5.69212
 C  2.67358  -0.88722  -2.84608
 C  3.06326  0.40710  -2.49854
 C  1.98199  1.33834  -2.40961
 C  0.73220  0.77652  -2.68834
 S  1.02662  -0.82039  -3.02540
 H  4.14121  0.77174  -2.53024
 C  2.20510  2.85336  -1.90345
 C  2.91069  3.97174  -2.97399
 C  2.02044  5.40771  -3.14407
 H  2.36437  5.83737  -4.16495
 H  0.91212  5.09515  -3.16834
 H  3.02200  3.48512  -4.00778
 H  3.94993  4.24890  -2.56387
 H  2.88314  2.85218  -0.95808
 H  1.18323  3.31392  -1.58608
 C  2.18394  6.64311  -2.09788
 C  0.94794  7.80140  -2.01384
 C  0.60496  8.51633  -3.48531
 H  0.10867  9.54701  -3.29959
 H  -0.10805  7.86549  -4.11146
 H  1.62551  8.63894  -3.99731
 H  1.33550  8.64299  -1.32837
 H  -0.01822  7.36845  -1.59705
 H  2.29750  6.22577  -1.05374
 H  3.14479  7.22196  -2.38095
 H  -1.12248  -7.46834  -0.27059
 H  3.38987  -1.66268  -2.94191
 H  -0.14786  1.36642  -2.65509
