54
CommentLine
 C  1.47486  -1.08455  -1.80242
 C  2.13774  -0.36793  -0.80496
 C  3.37872  -0.94827  -0.39578
 C  3.69737  -2.12911  -1.07356
 S  2.44453  -2.38933  -2.12860
 H  1.84796  0.68984  -0.52966
 H  0.37568  -1.19541  -1.99809
 C  4.38417  -0.24889  0.64031
 C  4.32991  -0.51235  2.31873
 C  5.34398  0.58383  3.10142
 H  6.40075  0.11300  3.07180
 H  5.33530  1.55158  2.46852
 H  4.69191  -1.57637  2.55030
 H  3.27719  -0.34356  2.73439
 H  4.20340  0.89966  0.58846
 H  5.47711  -0.46699  0.32846
 C  4.96880  0.97373  4.63749
 C  3.60871  1.95785  4.86117
 C  3.77344  3.56200  4.40485
 H  4.06965  3.57844  3.29070
 H  4.56616  4.07180  5.06829
 H  2.75902  4.09685  4.53833
 H  3.32654  1.93857  5.97730
 H  2.75552  1.52487  4.22484
 H  4.79356  0.00268  5.23836
 H  5.86795  1.53849  5.10416
 C  -6.41031  0.26684  1.63643
 C  -6.33858  -0.64249  0.58009
 C  -5.07124  -0.67041  -0.08123
 C  -4.13754  0.22139  0.45563
 S  -4.91818  0.98673  1.70274
 H  -7.19942  -1.34122  0.30665
 C  -4.73527  -1.68443  -1.26735
 C  -4.84210  -1.00200  -2.79756
 C  -3.74441  -1.72279  -3.85777
 H  -2.99201  -2.31729  -3.22855
 H  -4.32815  -2.45658  -4.52892
 H  -4.67657  0.13068  -2.72781
 H  -5.90211  -1.20918  -3.20521
 H  -5.42560  -2.62054  -1.22385
 H  -3.63783  -2.05392  -1.16161
 C  -2.90647  -0.66261  -4.76014
 C  -1.45846  -0.07801  -4.10746
 C  -1.64737  0.90760  -2.75955
 H  -1.05343  0.47415  -1.86832
 H  -2.76180  0.97521  -2.47515
 H  -1.24506  1.96389  -3.00839
 H  -0.93010  0.53873  -4.92736
 H  -0.79885  -0.97299  -3.81935
 H  -2.67059  -1.10954  -5.79792
 H  -3.58969  0.24390  -4.88558
 H  4.59298  -2.65377  -0.85856
 H  -7.30127  0.37477  2.20047
 H  -3.16052  0.29345  0.05085
