54
CommentLine
 C  -0.54462  1.21096  -6.23190
 C  0.11826  1.92758  -5.23443
 C  1.35924  1.34724  -4.82525
 C  1.67789  0.16640  -5.50304
 S  0.42505  -0.09382  -6.55808
 H  -0.17152  2.98535  -4.95914
 H  -1.64381  1.10010  -6.42757
 C  2.36468  2.04662  -3.78916
 C  2.31043  1.78316  -2.11075
 C  3.32449  2.87934  -1.32806
 H  4.38127  2.40851  -1.35767
 H  3.31582  3.84709  -1.96096
 H  2.67243  0.71914  -1.87917
 H  1.25771  1.95195  -1.69509
 H  2.18392  3.19517  -3.84102
 H  3.45763  1.82852  -4.10102
 C  2.94932  3.26924  0.20802
 C  1.58922  4.25336  0.43170
 C  1.75395  5.85751  -0.02463
 H  2.05016  5.87395  -1.13877
 H  2.54668  6.36731  0.63882
 H  0.73954  6.39236  0.10886
 H  1.30706  4.23408  1.54783
 H  0.73604  3.82038  -0.20463
 H  2.77408  2.29819  0.80889
 H  3.84846  3.83400  0.67468
 C  -0.56480  0.46510  0.24054
 C  -0.56843  -0.64264  1.08953
 C  -0.24089  -0.33845  2.44764
 C  0.02270  1.01633  2.67217
 S  -0.16077  1.75611  1.19925
 H  -0.65064  -1.70854  0.68749
 H  -1.03762  0.69860  -0.73099
 C  -0.17654  -1.50655  3.54526
 C  -1.69332  -2.21538  3.77151
 C  -1.91586  -3.31075  2.51447
 H  -2.66191  -2.81921  1.77822
 H  -0.90438  -3.44100  1.96270
 H  -1.75880  -2.81492  4.73265
 H  -2.49471  -1.39035  3.73641
 H  0.19905  -1.09766  4.56072
 H  0.55371  -2.35810  3.21586
 C  -2.41895  -4.78547  2.95918
 C  -3.98497  -5.04878  2.41582
 C  -4.01995  -6.53001  1.63338
 H  -3.20190  -7.20520  2.09971
 H  -3.78328  -6.41618  0.51161
 H  -5.05889  -7.00731  1.77626
 H  -4.30942  -4.22456  1.68670
 H  -4.69341  -5.08133  3.31860
 H  -1.72129  -5.57175  2.47020
 H  -2.38911  -4.93425  4.10511
 H  2.57349  -0.35826  -5.28803
 H  0.27750  1.36682  3.63956
