54
CommentLine
 C  -8.27923  -1.00111  -3.54211
 C  -7.61636  -0.28448  -2.54464
 C  -6.37538  -0.86482  -2.13546
 C  -6.05672  -2.04566  -2.81325
 S  -7.30957  -2.30589  -3.86829
 H  -7.90613  0.77329  -2.26935
 H  -9.37842  -1.11197  -3.73778
 C  -5.36993  -0.16544  -1.09937
 C  -5.42419  -0.42891  0.57904
 C  -4.41012  0.66727  1.36173
 H  -3.35334  0.19645  1.33212
 H  -4.41880  1.63502  0.72883
 H  -5.06218  -1.49292  0.81062
 H  -6.47691  -0.26012  0.99470
 H  -5.55070  0.98310  -1.15123
 H  -4.27699  -0.38355  -1.41123
 C  -4.78530  1.05718  2.89781
 C  -6.14539  2.04130  3.12149
 C  -5.98066  3.64545  2.66516
 H  -5.68445  3.66188  1.55102
 H  -5.18794  4.15525  3.32861
 H  -6.99508  4.18029  2.79865
 H  -6.42756  2.02201  4.23762
 H  -6.99857  1.60831  2.48516
 H  -4.96054  0.08612  3.49868
 H  -3.88615  1.62194  3.36447
 C  1.44204  -1.23704  -2.94740
 C  2.61808  -0.83637  -2.31155
 C  3.68549  -1.78274  -2.40792
 C  3.35063  -2.93650  -3.12347
 S  1.77367  -2.72793  -3.59266
 H  2.75950  0.21524  -1.90084
 C  5.17518  -1.62947  -1.81962
 C  5.37492  -0.59936  -0.52117
 C  6.80854  -0.84797  0.33011
 H  7.62964  -1.17063  -0.40818
 H  6.62266  -1.74107  1.03939
 H  5.29672  0.49070  -0.85850
 H  4.53628  -0.85978  0.22363
 H  5.88847  -1.27329  -2.66351
 H  5.56406  -2.67656  -1.46123
 C  7.21275  0.45396  1.22205
 C  8.46896  0.27191  2.33419
 C  9.77077  1.31871  2.13410
 H  9.36367  2.37911  1.92801
 H  10.44390  0.95440  1.27911
 H  10.39960  1.35302  3.10941
 H  8.06714  0.51678  3.38268
 H  8.79794  -0.82318  2.31454
 H  6.27750  0.78182  1.82354
 H  7.50800  1.31540  0.51643
 H  -5.16112  -2.57033  -2.59824
 H  0.58310  -0.61592  -2.94204
 H  4.05850  -3.71290  -3.26387
