54
CommentLine
 H 1.98783916236 -19.4321108341 41.7827441693
 C 3.20776380599 -18.3231217861 40.1860065935
 H 5.8372312665 -17.3974717856 38.725381422
 C -10.5496660233 -17.6214964867 40.6581807135
 H -11.1619475484 -16.2950878143 43.1233644485
 C 0.0465221101937 -19.0752389669 38.5787704466
 H -4.67175974127 -17.6626001071 37.7370325168
 H -8.57974164484 -18.2590163946 39.6361832143
 H -10.4547717691 -18.3169819832 41.5771561147
 C -10.9573185086 -19.7537238359 36.1604823589
 H -1.51727508388 -21.4398641339 37.8440588574
 C -11.1126311779 -18.4576597929 36.8961000918
 H -10.0214822531 -15.3921869755 40.2313719749
 H 0.260831520712 -17.7883108139 40.4982045172
 C -9.94517463446 -17.7699949026 37.8320573806
 H -14.1606354356 -18.1996762753 35.0305841923
 C -12.5084468842 -17.8038334131 36.6177068234
 H -8.9270044923 -16.2024728775 41.5359032631
 H -10.1593195915 -16.6325063467 37.9274179936
 C -9.7064463973 -18.3448924064 39.4042429923
 S -4.00154503585 -20.303343296 37.6285024642
 H -11.9833016396 -15.1678930044 41.874846983
 C 1.96264479161 -19.3613580465 40.632143402
 H 4.84988861682 -19.9633348227 40.4979641439
 C 4.62390525936 -19.1232053518 39.7530598641
 H -10.5594299316 -13.1700827479 42.5540209293
 H 6.90946473478 -18.7606288433 39.4645472049
 H 3.44272922278 -17.6402508259 41.084072876
 H -0.349201289187 -19.5395510673 40.8097321033
 H -12.7585759401 -16.7975803852 36.9836908816
 H 2.86440766454 -17.6947106838 39.2893859385
 C -10.9791121006 -15.4643972397 42.3528620722
 C -13.3469038963 -18.5672735452 35.6665755271
 H 0.627788870043 -20.0065512896 38.2049725533
 S -12.4613031864 -20.0771448374 35.108245182
 H 2.16704678834 -20.3929603338 40.1652802945
 C 0.397465853769 -18.8977095127 40.2178036212
 H -10.9938823819 -14.0249054789 44.1662135124
 C -10.0012214661 -16.100437665 41.1362127305
 H -9.28018103838 -14.2816828966 43.4270477295
 H -2.20350238978 -16.994781661 38.203127432
 H -10.0200095415 -19.4558399916 39.4189734937
 C 5.96118787529 -18.1140881538 39.622157812
 C -2.17391739189 -20.5709417582 37.8875879763
 C -3.93367165326 -18.4610539198 37.8131737234
 H -11.6486592531 -17.553386116 40.3503264427
 C -2.5397067815 -18.0533125639 38.1346446514
 H 0.445390263205 -18.1398182869 38.0283453464
 H -8.92966891526 -17.9040201187 37.289337778
 H 4.44546340109 -19.6162505627 38.7329785824
 H -10.0294538521 -20.2976173721 36.3375332004
 C -10.3969627619 -14.1260900736 43.1799910544
 H 6.06972333194 -17.4865014315 40.5875050069
 C -1.53885708153 -19.2604383707 38.2257293224
