54
CommentLine
 S -14.6639126062 -22.1745106935 36.7232172967
 H -15.0747364998 -21.4513263702 40.3895411968
 C -10.5496660233 -17.6214964867 40.6581807135
 H -11.1619475484 -16.2950878143 43.1233644485
 H -13.5597293377 -26.4812457562 42.5703121661
 H -13.3108188085 -24.4010696924 37.5489824165
 H -8.57974164484 -18.2590163946 39.6361832143
 H -15.8846804619 -27.5585071802 42.0059690953
 H -10.4547717691 -18.3169819832 41.5771561147
 C -10.9573185086 -19.7537238359 36.1604823589
 C -13.3429258823 -23.9550240517 40.4656820775
 C -11.1126311779 -18.4576597929 36.8961000918
 H -10.0214822531 -15.3921869755 40.2313719749
 H -15.5338010073 -31.329381752 42.7341487884
 C -9.94517463446 -17.7699949026 37.8320573806
 H -14.1606354356 -18.1996762753 35.0305841923
 C -12.5084468842 -17.8038334131 36.6177068234
 C -13.8340988874 -26.641612196 41.4673256876
 H -8.9270044923 -16.2024728775 41.5359032631
 H -10.1593195915 -16.6325063467 37.9274179936
 C -9.7064463973 -18.3448924064 39.4042429923
 C -15.7525917769 -30.5276477337 41.9280135633
 H -11.9833016396 -15.1678930044 41.874846983
 H -10.5594299316 -13.1700827479 42.5540209293
 H -14.1361571074 -29.2802982807 43.0159716128
 H -15.8176009893 -31.0328893662 40.8916782857
 C -14.9834757805 -27.8758629799 41.3739930153
 H -16.7536953926 -30.0030509472 42.1723821163
 C -13.8037483335 -23.4533863306 37.7658158301
 C -14.4366749048 -25.1968719959 40.8298785687
 H -12.7585759401 -16.7975803852 36.9836908816
 C -10.9791121006 -15.4643972397 42.3528620722
 C -13.3469038963 -18.5672735452 35.6665755271
 S -12.4613031864 -20.0771448374 35.108245182
 H -13.2466232419 -23.2988921165 41.4182657717
 H -10.9938823819 -14.0249054789 44.1662135124
 C -10.0012214661 -16.100437665 41.1362127305
 H -9.28018103838 -14.2816828966 43.4270477295
 H -13.6664890766 -29.7808272362 41.2540059568
 H -12.9016981125 -26.9664212704 40.8805229187
 H -10.0200095415 -19.4558399916 39.4189734937
 C -14.62258358 -21.6786588669 39.4010538101
 H -11.6486592531 -17.553386116 40.3503264427
 H -15.1696552992 -24.7614741325 41.602832079
 H -15.2952081919 -27.9858965397 40.2690937041
 C -13.8344873786 -23.0194527149 39.2003113747
 C -14.5099346876 -29.3911139011 41.9328785898
 H -8.92966891526 -17.9040201187 37.289337778
 H -12.2974877238 -24.4043957472 40.2501786707
 H -10.0294538521 -20.2976173721 36.3375332004
 C -10.3969627619 -14.1260900736 43.1799910544
 H -15.6548868629 -20.1154594738 38.2277654656
 H -15.0145330668 -25.4552025318 39.8671585559
 C -15.1250321388 -21.0640523195 38.1410153389
