54
CommentLine
 H -18.9514322281 -15.7552638769 42.0777925014
 C -17.8279818296 -15.5240786314 42.2802243232
 C -17.241512537 -14.8806509495 40.8365708827
 C -16.0978927612 -12.3786172628 41.5324998854
 C -10.5496660233 -17.6214964867 40.6581807135
 H -11.1619475484 -16.2950878143 43.1233644485
 H -13.2558717608 -13.2800310016 43.3750922681
 H -17.4216065407 -12.8679163695 39.6991466521
 H -17.3611370689 -20.4472597034 42.8431560619
 H -8.57974164484 -18.2590163946 39.6361832143
 C -17.6427536488 -18.3020205974 42.386391592
 H -10.4547717691 -18.3169819832 41.5771561147
 C -16.1048720598 -16.9509059191 43.9334090708
 C -10.9573185086 -19.7537238359 36.1604823589
 H -18.353144002 -12.9298735142 41.3305962084
 H -16.3324466228 -12.9106698632 43.7793837547
 C -11.1126311779 -18.4576597929 36.8961000918
 H -16.1523441553 -15.1996385813 40.7115190505
 H -10.0214822531 -15.3921869755 40.2313719749
 C -17.3745034695 -13.2006814718 40.8014661791
 C -9.94517463446 -17.7699949026 37.8320573806
 H -14.1606354356 -18.1996762753 35.0305841923
 C -12.5084468842 -17.8038334131 36.6177068234
 H -8.9270044923 -16.2024728775 41.5359032631
 H -10.1593195915 -16.6325063467 37.9274179936
 C -9.7064463973 -18.3448924064 39.4042429923
 H -11.9833016396 -15.1678930044 41.874846983
 H -13.7933133006 -11.5570989728 42.8402711393
 H -15.689345715 -16.0059199026 44.2833223251
 C -15.5455429792 -13.0869492054 42.9560431958
 H -10.5594299316 -13.1700827479 42.5540209293
 H -16.4626360178 -11.3189852118 41.8104767321
 H -12.7585759401 -16.7975803852 36.9836908816
 C -10.9791121006 -15.4643972397 42.3528620722
 C -13.3469038963 -18.5672735452 35.6665755271
 S -12.4613031864 -20.0771448374 35.108245182
 H -14.1704154849 -12.1611113072 44.5957399367
 H -18.468987155 -18.4086821556 41.6418360234
 C -17.0414455176 -19.4445790053 43.1269319058
 S -15.8556486368 -18.7539466858 44.3862966537
 H -10.9938823819 -14.0249054789 44.1662135124
 C -10.0012214661 -16.100437665 41.1362127305
 H -9.28018103838 -14.2816828966 43.4270477295
 H -15.2331097603 -12.2629721642 40.7883945941
 H -10.0200095415 -19.4558399916 39.4189734937
 H -11.6486592531 -17.553386116 40.3503264427
 H -15.4110861063 -14.2147330999 42.7791011333
 C -17.1212715626 -16.8925696135 42.8344852449
 H -17.7654846907 -14.7041727066 43.0953176975
 H -8.92966891526 -17.9040201187 37.289337778
 H -10.0294538521 -20.2976173721 36.3375332004
 C -14.075997746 -12.4719093085 43.4860873221
 C -10.3969627619 -14.1260900736 43.1799910544
 H -17.8776105166 -15.2931642294 39.9701729776
