54
CommentLine
 H -12.7839776754 -15.230808258 35.4028111935
 C -8.22475214006 -17.6570565462 30.911931324
 H -11.4619160414 -13.8881769061 35.2688384533
 C -10.5496660233 -17.6214964867 40.6581807135
 H -11.1619475484 -16.2950878143 43.1233644485
 H -8.40878268481 -18.605785799 30.2740339279
 H -8.57974164484 -18.2590163946 39.6361832143
 H -6.07816500664 -19.8724514723 31.3317793846
 H -10.4547717691 -18.3169819832 41.5771561147
 C -10.9573185086 -19.7537238359 36.1604823589
 C -10.8309226155 -16.9359915733 31.7604603291
 C -5.71827111839 -18.8367340565 31.5410026074
 C -6.01346049307 -16.3129905701 31.8467815399
 C -11.1126311779 -18.4576597929 36.8961000918
 H -10.0214822531 -15.3921869755 40.2313719749
 H -6.61375113425 -15.4051408491 31.7871155513
 C -9.94517463446 -17.7699949026 37.8320573806
 C -9.34123678208 -17.6011053562 32.176892376
 H -14.1606354356 -18.1996762753 35.0305841923
 C -12.5084468842 -17.8038334131 36.6177068234
 H -8.9270044923 -16.2024728775 41.5359032631
 C -4.36566256881 -18.5150329113 32.081836462
 H -10.1593195915 -16.6325063467 37.9274179936
 C -9.7064463973 -18.3448924064 39.4042429923
 H -12.6108409643 -15.9129699468 32.8578268051
 H -11.9833016396 -15.1678930044 41.874846983
 H -9.56964842082 -18.6410597801 32.5913472653
 S -4.28914462329 -16.6800258398 32.413988781
 H -10.5594299316 -13.1700827479 42.5540209293
 H -8.43789243699 -16.7270730495 30.2609995842
 H -10.6802227497 -15.9583633184 31.1776626587
 H -12.1794778228 -17.6275159836 33.5075871468
 H -11.3900206328 -17.698796916 31.1060922623
 H -12.7585759401 -16.7975803852 36.9836908816
 H -10.2794099092 -16.7724410296 34.9110981941
 C -10.9791121006 -15.4643972397 42.3528620722
 C -13.3469038963 -18.5672735452 35.6665755271
 S -12.4613031864 -20.0771448374 35.108245182
 H -10.9938823819 -14.0249054789 44.1662135124
 C -10.0012214661 -16.100437665 41.1362127305
 H -9.28018103838 -14.2816828966 43.4270477295
 H -10.0417565823 -15.2466255188 33.8502515793
 H -10.0200095415 -19.4558399916 39.4189734937
 H -3.66687039768 -19.3437251142 32.1961112815
 C -10.8242666364 -15.9232603073 34.3510920048
 H -11.6486592531 -17.553386116 40.3503264427
 H -8.8589567542 -16.9672875404 33.0099088192
 C -6.65571212171 -17.5824154615 31.387126255
 H -8.92966891526 -17.9040201187 37.289337778
 H -10.0294538521 -20.2976173721 36.3375332004
 C -11.7554316878 -16.628860116 33.1364469051
 C -10.3969627619 -14.1260900736 43.1799910544
 H -11.2685041547 -15.2481371641 36.5435194016
 C -11.6556994915 -15.0070830584 35.4803977013
